$ MSC.Nastran input file created on March     11, 2022 at 00:22:55 by
$ Patran 2021.1  (Student Edition)
$ Direct Text Input for Nastran System Cell Section
$ Normal Modes Analysis, Database
SOL 103
CEND
ECHO = NONE
$ Using Nastran default values for RESVEC
SUBCASE 1
$ Subcase name : Default
   SUBTITLE=Default
   METHOD = 1
   SPC = 2
   VECTOR(SORT1,REAL)=ALL
   SPCFORCES(SORT1,REAL)=ALL
BEGIN BULK
MDLPRM   HDF5    0
PARAM   PRTMAXIM YES
EIGRL    1                       10      0
$ Elements and Element Properties for region : pbeam.1
PBEAM*   1               1               12157.813       3.3191059+8
*        1.1002898+9                     6.0970131+8
+
*        YES             1.              12157.813       3.3191059+8
*        1.1002898+9                     6.0970131+8
+
         1.      1.
$ Pset: "pbeam.1" will be imported as: "pbeam.1"
CBEAM    1       1       1       2       100
$ Elements and Element Properties for region : pbeam.2
PBEAM*   2               1               10738.436       2.9213331+8
*        9.8081408+8                     5.5180026+8
+
*        YES             1.              10738.436       2.9213331+8
*        9.8081408+8                     5.5180026+8
+
         1.      1.
$ Pset: "pbeam.2" will be imported as: "pbeam.2"
CBEAM    2       2       2       3       100
$ Elements and Element Properties for region : pbeam.3
PBEAM*   3               1               9486.4863       2.5666642+8
*        8.7045805+8                     4.9179891+8
+
*        YES             1.              9486.4863       2.5666642+8
*        8.7045805+8                     4.9179891+8
+
         1.      1.
$ Pset: "pbeam.3" will be imported as: "pbeam.3"
CBEAM    3       3       3       4       100
$ Elements and Element Properties for region : pbeam.4
PBEAM*   4               1               8417.4688       2.2568437+8
*        7.7461734+8                     4.3754557+8
+
*        YES             1.              8417.4688       2.2568437+8
*        7.7461734+8                     4.3754557+8
+
         1.      1.
$ Pset: "pbeam.4" will be imported as: "pbeam.4"
CBEAM    4       4       4       5       100
$ Elements and Element Properties for region : pbeam.5
PBEAM*   5               1               7433.9961       1.975413+8
*        6.856921+8                      3.8683229+8
+
*        YES             1.              7433.9961       1.975413+8
*        6.856921+8                      3.8683229+8
+
         1.      1.
$ Pset: "pbeam.5" will be imported as: "pbeam.5"
CBEAM    5       5       5       6       100
$ Elements and Element Properties for region : pbeam.6
PBEAM*   6               1               6556.1821       1.7290547+8
*        6.0490669+8                     3.3999789+8
+
*        YES             1.              6556.1821       1.7290547+8
*        6.0490669+8                     3.3999789+8
+
         1.      1.
$ Pset: "pbeam.6" will be imported as: "pbeam.6"
CBEAM    6       6       6       7       100
$ Elements and Element Properties for region : pbeam.7
PBEAM*   7               1               6015.5552       1.5958456+8
*        5.5231968+8                     3.1047974+8
+
*        YES             1.              6015.5552       1.5958456+8
*        5.5231968+8                     3.1047974+8
+
         1.      1.
$ Pset: "pbeam.7" will be imported as: "pbeam.7"
CBEAM    7       7       7       8       100
$ Elements and Element Properties for region : pbeam.8
PBEAM*   8               1               5311.2148       1.3885299+8
*        5.0284806+8                     2.8938781+8
+
*        YES             1.              5311.2148       1.3885299+8
*        5.0284806+8                     2.8938781+8
+
         1.      1.
$ Pset: "pbeam.8" will be imported as: "pbeam.8"
CBEAM    8       8       8       9       100
$ Elements and Element Properties for region : pbeam.9
PBEAM*   9               1               4495.5762       1.0952082+8
*        4.2813792+8                     2.493123+8
+
*        YES             1.              4495.5762       1.0952082+8
*        4.2813792+8                     2.493123+8
+
         1.      1.
$ Pset: "pbeam.9" will be imported as: "pbeam.9"
CBEAM    9       9       9       10      100
$ Elements and Element Properties for region : pbeam.10
PBEAM*   10              1               3988.313        8.8030296+7
*        3.5444387+8                     2.0176491+8
+
*        YES             1.              3988.313        8.8030296+7
*        3.5444387+8                     2.0176491+8
+
         1.      1.
$ Pset: "pbeam.10" will be imported as: "pbeam.10"
CBEAM    10      10      10      11      100
$ Elements and Element Properties for region : pbeam.11
PBEAM*   11              1               3517.323        6.982392+7
*        2.9251485+8                     1.627371+8
+
*        YES             1.              3517.323        6.982392+7
*        2.9251485+8                     1.627371+8
+
         1.      1.
$ Pset: "pbeam.11" will be imported as: "pbeam.11"
CBEAM    11      11      11      12      100
$ Elements and Element Properties for region : pbeam.12
PBEAM*   12              1               3072.426        5.448852+7
*        2.3904973+8                     1.2966352+8
+
*        YES             1.              3072.426        5.448852+7
*        2.3904973+8                     1.2966352+8
+
         1.      1.
$ Pset: "pbeam.12" will be imported as: "pbeam.12"
CBEAM    12      12      12      13      100
$ Elements and Element Properties for region : pbeam.13
PBEAM*   13              1               2651.958        4.1721704+7
*        1.9271912+8                     1.0140555+8
+
*        YES             1.              2651.958        4.1721704+7
*        1.9271912+8                     1.0140555+8
+
         1.      1.
$ Pset: "pbeam.13" will be imported as: "pbeam.13"
CBEAM    13      13      13      14      100
$ Elements and Element Properties for region : pbeam.14
PBEAM*   14              1               2259.093        3.1267342+7
*        1.5307824+8                     7.761916+7
+
*        YES             1.              2259.093        3.1267342+7
*        1.5307824+8                     7.761916+7
+
         1.      1.
$ Pset: "pbeam.14" will be imported as: "pbeam.14"
CBEAM    14      14      14      15      100
$ Elements and Element Properties for region : pbeam.15
PBEAM*   15              1               1906.941        2.2915568+7
*        1.2115802+8                     5.839142+7
+
*        YES             1.              1906.941        2.2915568+7
*        1.2115802+8                     5.839142+7
+
         1.      1.
$ Pset: "pbeam.15" will be imported as: "pbeam.15"
CBEAM    15      15      15      16      100
$ Elements and Element Properties for region : pbeam.16
PBEAM*   16              1               1658.027        1.7298826+7
*        9.8600008+7                     4.5156444+7
+
*        YES             1.              1658.027        1.7298826+7
*        9.8600008+7                     4.5156444+7
+
         1.      1.
$ Pset: "pbeam.16" will be imported as: "pbeam.16"
CBEAM    16      16      16      17      100
$ Elements and Element Properties for region : pbeam.17
PBEAM*   17              1               1488.02         1.3578314+7
*        8.1924792+7                     3.616294+7
+
*        YES             1.              1488.02         1.3578314+7
*        8.1924792+7                     3.616294+7
+
         1.      1.
$ Pset: "pbeam.17" will be imported as: "pbeam.17"
CBEAM    17      17      17      18      100
$ Elements and Element Properties for region : pbeam.18
PBEAM*   18              1               1350.313        1.0657903+7
*        6.8289712+7                     2.8882784+7
+
*        YES             1.              1350.313        1.0657903+7
*        6.8289712+7                     2.8882784+7
+
         1.      1.
$ Pset: "pbeam.18" will be imported as: "pbeam.18"
CBEAM    18      18      18      19      100
$ Elements and Element Properties for region : pbeam.19
PBEAM*   19              1               1260.4351       8542308.
*        5.77945+7                       2.346517+7
+
*        YES             1.              1260.4351       8542308.
*        5.77945+7                       2.346517+7
+
         1.      1.
$ Pset: "pbeam.19" will be imported as: "pbeam.19"
CBEAM    19      19      19      20      100
$ Elements and Element Properties for region : pbeam.20
PBEAM*   20              1               1190.88         6883323.5
*        4.906566+7                      1.91758+7
+
*        YES             1.              1190.88         6883323.5
*        4.906566+7                      1.91758+7
+
         1.      1.
$ Pset: "pbeam.20" will be imported as: "pbeam.20"
CBEAM    20      20      20      21      100
$ Elements and Element Properties for region : pbeam.21
PBEAM*   21              1               1121.95         5474488.5
*        4.1303328+7                     1.5507331+7
+
*        YES             1.              1121.95         5474488.5
*        4.1303328+7                     1.5507331+7
+
         1.      1.
$ Pset: "pbeam.21" will be imported as: "pbeam.21"
CBEAM    21      21      21      22      100
$ Elements and Element Properties for region : pbeam.22
PBEAM*   22              1               1053.605        4289549.
*        3.4439256+7                     1.2393715+7
+
*        YES             1.              1053.605        4289549.
*        3.4439256+7                     1.2393715+7
+
         1.      1.
$ Pset: "pbeam.22" will be imported as: "pbeam.22"
CBEAM    22      22      22      23      100
$ Elements and Element Properties for region : pbeam.23
PBEAM*   23              1               986.59601       3313860.
*        2.8472032+7                     9798458.
+
*        YES             1.              986.59601       3313860.
*        2.8472032+7                     9798458.
+
         1.      1.
$ Pset: "pbeam.23" will be imported as: "pbeam.23"
CBEAM    23      23      23      24      100
$ Elements and Element Properties for region : pbeam.24
PBEAM*   24              1               920.85199       2519174.5
*        2.33157+7                       7654888.5
+
*        YES             1.              920.85199       2519174.5
*        2.33157+7                       7654888.5
+
         1.      1.
$ Pset: "pbeam.24" will be imported as: "pbeam.24"
CBEAM    24      24      24      25      100
$ Elements and Element Properties for region : conm2
CONM2    25      25      0      .0022931 0.      0.      0.
         0.      0.      0.      0.      0.      0.
CONM2    100     100     0       .3344   0.      0.      0.
         0.      0.      0.      0.      0.      0.
CONM2    101     101     0       .1368   0.      0.      0.
         0.      0.      0.      0.      0.      0.
CONM2    10001   1       0               0.      0.      0.
         0.      0.      0.      0.      0.      0.
CONM2    10002   2       0               0.      0.      0.
         0.      0.      0.      0.      0.      0.
CONM2    10003   3       0               0.      0.      0.
         0.      0.      0.      0.      0.      0.
CONM2    10004   4       0               0.      0.      0.
         0.      0.      0.      0.      0.      0.
CONM2    10005   5       0               0.      0.      0.
         0.      0.      0.      0.      0.      0.
CONM2    10006   6       0               0.      0.      0.
         0.      0.      0.      0.      0.      0.
CONM2    10007   7       0               0.      0.      0.
         0.      0.      0.      0.      0.      0.
CONM2    10008   8       0               0.      0.      0.
         0.      0.      0.      0.      0.      0.
CONM2    10009   9       0               0.      0.      0.
         0.      0.      0.      0.      0.      0.
CONM2    10010   10      0               0.      0.      0.
         0.      0.      0.      0.      0.      0.
CONM2    10011   11      0               0.      0.      0.
         0.      0.      0.      0.      0.      0.
CONM2    10012   12      0               0.      0.      0.
         0.      0.      0.      0.      0.      0.
CONM2    10013   13      0               0.      0.      0.
         0.      0.      0.      0.      0.      0.
CONM2    10014   14      0               0.      0.      0.
         0.      0.      0.      0.      0.      0.
CONM2    10015   15      0               0.      0.      0.
         0.      0.      0.      0.      0.      0.
CONM2    10016   16      0               0.      0.      0.
         0.      0.      0.      0.      0.      0.
CONM2    10017   17      0               0.      0.      0.
         0.      0.      0.      0.      0.      0.
$ ... 14 like lines cut
$ Referenced Material Records
$ Material Record : mat1.1
$ Description of Material :
MAT1     1       72397.  27000.  .32     1.-16
$ Multipoint Constraints of the Entire Model
RBE2     51      8       123456  100
RBE2     52      8       123456  101
$ Nodes of the Entire Model
GRID     1               1299.18 0.      0.
GRID     2               1299.18416.4695 0.
GRID     3               1299.18 832.939 0.
GRID*    4                               1299.131599     1191.8756
*        0.
GRID*    5                               1299.083199     1550.8122
*        0.
GRID*    6                               1299.034798     1909.7488
*        0.
GRID*    7                               1298.986398     2268.6854
*        0.
GRID*    8                               1298.937997     2627.622
*        0.
GRID*    9                               1298.871996     3117.081
*        0.
GRID*    10                              1283.520072     3459.947643
*        0.
GRID*    11                              1268.168148     3802.814286
*        0.
GRID*    12                              1252.816224     4145.680929
*        0.
GRID*    13                              1237.4643       4488.547571
*        0.
GRID*    14                              1222.112376     4831.414214
*        0.
GRID*    15                              1206.760452     5174.280857
*        0.
GRID*    16                              1191.408528     5517.1475
*        0.
GRID*    17                              1176.056604     5860.014143
*        0.
GRID*    18                              1160.70468      6202.880786
*        0.
GRID*    19                              1145.352756     6545.747429
*        0.
GRID*    20                              1130.000832     6888.614071
*        0.
GRID*    21                              1114.648908     7231.480714
*        0.
GRID*    22                              1099.296984     7574.347357
*        0.
GRID*    23                              1083.94506      7917.214
*        0.
GRID*    24                              1068.950158     8252.107
*        0.
GRID*    25                              1053.955255     8587.
*        0.
GRID     100             -234.5  2627.6  0.
GRID     101             748.5   2627.6  0.
$ Loads for Load Case : Default
SPCADD   2       50
$ Displacement Constraints of Load Set : spc1.50
SPC1     50      123456  1
$ Referenced Coordinate Frames
ENDDATA 82055694
