$pyNastran: version=msc
$pyNastran: punch=False
$pyNastran: encoding=utf-8
$pyNastran: nnodes=27
$pyNastran: nelements=24
$EXECUTIVE CONTROL DECK
SOL 103
CEND
$NODES
GRID*                  1                         1299.18              0.
*                     0.                                                
GRID*                  2                         1299.18          416.47
*                     0.                                                
GRID*                  3                         1299.18          832.94
*                     0.                                                
GRID*                  4                         1299.13         1191.88
*                     0.                                                
GRID*                  5                         1299.08         1150.81
*                     0.                                                
GRID*                  6                         1299.04         1909.75
*                     0.                                                
GRID*                  7                         1298.99         2268.69
*                     0.                                                
GRID*                  8                         1298.94         2627.62
*                     0.                                                
GRID*                  9                         1298.87         3117.08
*                     0.                                                
GRID*                 10                         1283.52         3459.95
*                     0.                                                
GRID*                 11                         1268.17         3802.81
*                     0.                                                
GRID*                 12                         1252.82         3459.95
*                     0.                                                
GRID*                 13                         1237.46        4488.548
*                     0.                                                
GRID*                 14                         1222.11         4831.41
*                     0.                                                
GRID*                 15                         1206.76         5174.28
*                     0.                                                
GRID*                 16                         1191.41         5517.15
*                     0.                                                
GRID*                 17                         1176.06         5860.01
*                     0.                                                
GRID*                 18                         1160.71         6202.88
*                     0.                                                
GRID*                 19                         1145.35         6545.75
*                     0.                                                
GRID*                 20                           1130.         6888.61
*                     0.                                                
$ ... 14 like lines cut
$ELEMENTS
CBEAM*                 1               1               1               2
*                    100
CBEAM*                 2               2               2               3
*                    100
CBEAM*                 3               3               3               4
*                    100
CBEAM*                 4               4               4               5
*                    100
CBEAM*                 5               5               5               6
*                    100
CBEAM*                 6               6               6               7
*                    100
CBEAM*                 7               7               7               8
*                    100
CBEAM*                 8               8               8               9
*                    100
CBEAM*                 9               9               9              10
*                    100
CBEAM*                10              10              10              11
*                    100
CBEAM*                11              11              11              12
*                    100
CBEAM*                12              12              12              13
*                    100
CBEAM*                13              13              13              14
*                    100
CBEAM*                14              14              14              15
*                    100
CBEAM*                15              15              15              16
*                    100
CBEAM*                16              16              16              17
*                    100
CBEAM*                17              17              17              18
*                    100
CBEAM*                18              18              18              19
*                    100
CBEAM*                19              19              19              20
*                    100
CBEAM*                20              20              20              21
*                    100
$ ... 8 like lines cut
$PROPERTIES
PBEAM*                 1               1       12157.813   331910581.134
*         1100289834.703                   609701318.281
PBEAM*                 2               1       10738.436   292133317.129
*          980814110.442                   551800270.525
PBEAM*                 3               1        9486.486   256666420.008
*          870458062.477                    491798910.37
PBEAM*                 4               1        8417.469   225684368.908
*           774617325.51                   437545561.434
PBEAM*                 5               1        7433.996   197541294.719
*          685692114.531                   386832287.536
PBEAM*                 6               1        6556.182    172905479.58
*          604906685.344                    339997895.31
PBEAM*                 7               1        6015.555   159584565.071
*           552319696.44                   310479741.099
PBEAM*                 8               1        5311.215   138852997.883
*          502848069.473                   289387811.644
PBEAM*                 9               1        4495.576    109520827.96
*          428137909.155                   249312309.056
PBEAM*                10               1        3988.313    88030296.155
*          354443867.032                   201764914.256
PBEAM*                11               1        3517.323    69823922.577
*          292514855.646                   162737100.172
PBEAM*                12               1        3072.426    54488518.815
*          239049732.809                   129663523.628
PBEAM*                13               1        2651.958    41721704.689
*          192719113.392                   101405553.857
PBEAM*                14               1        2259.093    31267342.772
*          153078238.419                    77619163.804
PBEAM*                15               1        1906.941    22915567.125
*          121158013.375                    58391418.906
PBEAM*                16               1        1658.027    17298826.431
*           98600004.307                    45156443.361
PBEAM*                17               1         1488.02    13578314.084
*            81924788.27                    36162938.141
PBEAM*                18               1        1350.313    10657902.697
*           68289709.411                    28882784.857
PBEAM*                19               1        1260.435     8542308.215
*           57794500.388                    23465170.158
PBEAM*                20               1         1190.88     6883323.444
*           49065659.953                    19175800.061
$ ... 8 like lines cut
$MATERIALS
MAT1*                  1           27397           27000             .32
*                  1.-16
$MASSES
CONM2*                 1               1                       .01400159
*
CONM2*                 2               2                       .02484664
*
CONM2*                 3               3                       .02546982
*
CONM2*                 4               4                       .01906899
*
CONM2*                 5               5                       .01796483
*
CONM2*                 6               6                       .01694792
*
CONM2*                 7               7                        .0160897
*
CONM2*                 8               8                       .04461853
*
CONM2*                 9               9                       .01657169
*
CONM2*                11              11                       .01210256
*
CONM2*                12              12                       .01126236
*
CONM2*                13              13                       .01045264
*
CONM2*                14              14                      .009674809
*
CONM2*                15              15                      .008933798
*
CONM2*                16              16                      .008255062
*
CONM2*                17              17                      .007709694
*
CONM2*                18              18                      .007193918
*
CONM2*                19              19                      .006732572
*
CONM2*                20              20                      .006313959
*
CONM2*                21              21                      .005904836
*
CONM2*                22              22                      .005501775
*
CONM2*                23              23                      .005051136
*
CONM2*                24              24                      .004619121
*
CONM2*                25              25                      .002293105
*
CONM2*               100             100                           .3344
*
CONM2*               101             101                           .1368
*
$RIGID ELEMENTS
RBE2          51       8  123456     100
RBE2          52       8  123456     101
$SPCs
SPC1          50  123456       1
